Version 4
SHEET 1 880 680
WIRE 0 -64 -176 -64
WIRE 224 -64 80 -64
WIRE 480 -64 224 -64
WIRE 480 -32 480 -64
WIRE -176 -16 -176 -64
WIRE 224 16 224 -64
WIRE 224 144 224 96
WIRE 224 176 224 144
WIRE 0 224 -128 224
WIRE 160 224 80 224
WIRE -128 272 -128 224
WIRE 224 336 224 272
FLAG 480 48 0
FLAG -128 352 0
FLAG -176 64 0
FLAG 224 336 0
FLAG 224 144 vce
SYMBOL npn 160 176 R0
SYMATTR InstName Q1
SYMATTR Value TIP112
SYMATTR Prefix X
SYMBOL res 96 208 R90
WINDOW 0 0 56 VBottom 2
WINDOW 3 32 56 VTop 2
SYMATTR InstName R1
SYMATTR Value 8.2k
SYMBOL res 240 112 R180
WINDOW 0 36 76 Left 2
WINDOW 3 36 40 Left 2
SYMATTR InstName R2
SYMATTR Value 27
SYMBOL Misc\\signal -128 256 R0
WINDOW 123 0 0 Left 2
WINDOW 39 0 0 Left 2
SYMATTR InstName V1
SYMATTR Value SINE(5 5 100)
SYMBOL voltage -176 -32 R0
WINDOW 123 0 0 Left 2
WINDOW 39 0 0 Left 2
SYMATTR InstName V2
SYMATTR Value 23.1
SYMBOL res 96 -80 R90
WINDOW 0 0 56 VBottom 2
WINDOW 3 32 56 VTop 2
SYMATTR InstName R3
SYMATTR Value 4
SYMBOL current 480 -32 R0
WINDOW 123 0 0 Left 2
WINDOW 39 0 0 Left 2
SYMATTR InstName I1
SYMATTR Value 1.5
TEXT -288 -136 Left 2 !.inc ..\\Libreria\\TIP112.lib
TEXT -272 -160 Left 2 !.tran 0 5.1 5 0.001
